<?xml version="1.0" encoding="UTF-8" standalone="yes"?>
<template encoding-version="1.2">
    <description></description>
    <groupId>3264766b-0167-1000-edc9-061d073e395c</groupId>
    <name>Main NiFi Ingest Flow</name>
    <snippet>
        <connections>
            <id>0631c315-067b-3959-0000-000000000000</id>
            <parentGroupId>77f51378-1974-3120-0000-000000000000</parentGroupId>
            <backPressureDataSizeThreshold>1 GB</backPressureDataSizeThreshold>
            <backPressureObjectThreshold>10000</backPressureObjectThreshold>
            <destination>
                <groupId>77f51378-1974-3120-0000-000000000000</groupId>
                <id>53f07c05-f3b2-3ea3-0000-000000000000</id>
                <type>PROCESSOR</type>
            </destination>
            <flowFileExpiration>0 sec</flowFileExpiration>
            <labelIndex>1</labelIndex>
            <loadBalanceCompression>DO_NOT_COMPRESS</loadBalanceCompression>
            <loadBalancePartitionAttribute></loadBalancePartitionAttribute>
            <loadBalanceStatus>LOAD_BALANCE_NOT_CONFIGURED</loadBalanceStatus>
            <loadBalanceStrategy>DO_NOT_LOAD_BALANCE</loadBalanceStrategy>
            <name></name>
            <selectedRelationships>matched</selectedRelationships>
            <source>
                <groupId>77f51378-1974-3120-0000-000000000000</groupId>
                <id>7e78480c-480d-3e9e-0000-000000000000</id>
                <type>PROCESSOR</type>
            </source>
            <zIndex>0</zIndex>
        </connections>
        <connections>
            <id>3022271a-9d79-3bdb-0000-000000000000</id>
            <parentGroupId>77f51378-1974-3120-0000-000000000000</parentGroupId>
            <backPressureDataSizeThreshold>1 GB</backPressureDataSizeThreshold>
            <backPressureObjectThreshold>10000</backPressureObjectThreshold>
            <bends>
                <x>2489.645032504493</x>
                <y>361.8228293585157</y>
            </bends>
            <bends>
                <x>2489.645032504493</x>
                <y>411.8228293585157</y>
            </bends>
            <destination>
                <groupId>77f51378-1974-3120-0000-000000000000</groupId>
                <id>7e78480c-480d-3e9e-0000-000000000000</id>
                <type>PROCESSOR</type>
            </destination>
            <flowFileExpiration>0 sec</flowFileExpiration>
            <labelIndex>1</labelIndex>
            <loadBalanceCompression>DO_NOT_COMPRESS</loadBalanceCompression>
            <loadBalancePartitionAttribute></loadBalancePartitionAttribute>
            <loadBalanceStatus>LOAD_BALANCE_NOT_CONFIGURED</loadBalanceStatus>
            <loadBalanceStrategy>DO_NOT_LOAD_BALANCE</loadBalanceStrategy>
            <name></name>
            <selectedRelationships>failure</selectedRelationships>
            <selectedRelationships>unmatched</selectedRelationships>
            <source>
                <groupId>77f51378-1974-3120-0000-000000000000</groupId>
                <id>7e78480c-480d-3e9e-0000-000000000000</id>
                <type>PROCESSOR</type>
            </source>
            <zIndex>0</zIndex>
        </connections>
        <connections>
            <id>495e5cee-ad4a-3636-0000-000000000000</id>
            <parentGroupId>77f51378-1974-3120-0000-000000000000</parentGroupId>
            <backPressureDataSizeThreshold>1 GB</backPressureDataSizeThreshold>
            <backPressureObjectThreshold>10000</backPressureObjectThreshold>
            <destination>
                <groupId>77f51378-1974-3120-0000-000000000000</groupId>
                <id>98c89c1a-fc4e-3d82-0000-000000000000</id>
                <type>PROCESSOR</type>
            </destination>
            <flowFileExpiration>0 sec</flowFileExpiration>
            <labelIndex>1</labelIndex>
            <loadBalanceCompression>DO_NOT_COMPRESS</loadBalanceCompression>
            <loadBalancePartitionAttribute></loadBalancePartitionAttribute>
            <loadBalanceStatus>LOAD_BALANCE_NOT_CONFIGURED</loadBalanceStatus>
            <loadBalanceStrategy>DO_NOT_LOAD_BALANCE</loadBalanceStrategy>
            <name></name>
            <prioritizers>org.apache.nifi.prioritizer.OldestFlowFileFirstPrioritizer</prioritizers>
            <selectedRelationships>success</selectedRelationships>
            <source>
                <groupId>77f51378-1974-3120-0000-000000000000</groupId>
                <id>08c83c0b-34a9-3d3f-0000-000000000000</id>
                <type>PROCESSOR</type>
            </source>
            <zIndex>0</zIndex>
        </connections>
        <connections>
            <id>67cc34c0-5f01-3766-0000-000000000000</id>
            <parentGroupId>77f51378-1974-3120-0000-000000000000</parentGroupId>
            <backPressureDataSizeThreshold>1 GB</backPressureDataSizeThreshold>
            <backPressureObjectThreshold>10000</backPressureObjectThreshold>
            <bends>
                <x>2092.4366187768214</x>
                <y>1004.3818558704168</y>
            </bends>
            <bends>
                <x>2092.4366187768214</x>
                <y>1054.3818558704168</y>
            </bends>
            <destination>
                <groupId>77f51378-1974-3120-0000-000000000000</groupId>
                <id>75d11fd3-3306-38d4-0000-000000000000</id>
                <type>PROCESSOR</type>
            </destination>
            <flowFileExpiration>0 sec</flowFileExpiration>
            <labelIndex>1</labelIndex>
            <loadBalanceCompression>DO_NOT_COMPRESS</loadBalanceCompression>
            <loadBalancePartitionAttribute></loadBalancePartitionAttribute>
            <loadBalanceStatus>LOAD_BALANCE_NOT_CONFIGURED</loadBalanceStatus>
            <loadBalanceStrategy>DO_NOT_LOAD_BALANCE</loadBalanceStrategy>
            <name></name>
            <selectedRelationships>failure</selectedRelationships>
            <source>
                <groupId>77f51378-1974-3120-0000-000000000000</groupId>
                <id>75d11fd3-3306-38d4-0000-000000000000</id>
                <type>PROCESSOR</type>
            </source>
            <zIndex>0</zIndex>
        </connections>
        <connections>
            <id>6878f38c-ce6d-380d-0000-000000000000</id>
            <parentGroupId>77f51378-1974-3120-0000-000000000000</parentGroupId>
            <backPressureDataSizeThreshold>1 GB</backPressureDataSizeThreshold>
            <backPressureObjectThreshold>10000</backPressureObjectThreshold>
            <destination>
                <groupId>77f51378-1974-3120-0000-000000000000</groupId>
                <id>75d11fd3-3306-38d4-0000-000000000000</id>
                <type>PROCESSOR</type>
            </destination>
            <flowFileExpiration>0 sec</flowFileExpiration>
            <labelIndex>1</labelIndex>
            <loadBalanceCompression>DO_NOT_COMPRESS</loadBalanceCompression>
            <loadBalancePartitionAttribute></loadBalancePartitionAttribute>
            <loadBalanceStatus>LOAD_BALANCE_NOT_CONFIGURED</loadBalanceStatus>
            <loadBalanceStrategy>DO_NOT_LOAD_BALANCE</loadBalanceStrategy>
            <name></name>
            <prioritizers>org.apache.nifi.prioritizer.OldestFlowFileFirstPrioritizer</prioritizers>
            <selectedRelationships>success</selectedRelationships>
            <source>
                <groupId>77f51378-1974-3120-0000-000000000000</groupId>
                <id>53f07c05-f3b2-3ea3-0000-000000000000</id>
                <type>PROCESSOR</type>
            </source>
            <zIndex>0</zIndex>
        </connections>
        <connections>
            <id>950aaaa9-b6a3-33bd-0000-000000000000</id>
            <parentGroupId>77f51378-1974-3120-0000-000000000000</parentGroupId>
            <backPressureDataSizeThreshold>1 GB</backPressureDataSizeThreshold>
            <backPressureObjectThreshold>10000</backPressureObjectThreshold>
            <bends>
                <x>2179.601912236757</x>
                <y>739.3851412589925</y>
            </bends>
            <bends>
                <x>2180.3022296195695</x>
                <y>806.4266451652425</y>
            </bends>
            <destination>
                <groupId>77f51378-1974-3120-0000-000000000000</groupId>
                <id>53f07c05-f3b2-3ea3-0000-000000000000</id>
                <type>PROCESSOR</type>
            </destination>
            <flowFileExpiration>0 sec</flowFileExpiration>
            <labelIndex>0</labelIndex>
            <loadBalanceCompression>DO_NOT_COMPRESS</loadBalanceCompression>
            <loadBalancePartitionAttribute></loadBalancePartitionAttribute>
            <loadBalanceStatus>LOAD_BALANCE_NOT_CONFIGURED</loadBalanceStatus>
            <loadBalanceStrategy>DO_NOT_LOAD_BALANCE</loadBalanceStrategy>
            <name></name>
            <selectedRelationships>failure</selectedRelationships>
            <source>
                <groupId>77f51378-1974-3120-0000-000000000000</groupId>
                <id>53f07c05-f3b2-3ea3-0000-000000000000</id>
                <type>PROCESSOR</type>
            </source>
            <zIndex>0</zIndex>
        </connections>
        <connections>
            <id>be4fb831-ed2b-3635-0000-000000000000</id>
            <parentGroupId>77f51378-1974-3120-0000-000000000000</parentGroupId>
            <backPressureDataSizeThreshold>1 GB</backPressureDataSizeThreshold>
            <backPressureObjectThreshold>10000</backPressureObjectThreshold>
            <destination>
                <groupId>77f51378-1974-3120-0000-000000000000</groupId>
                <id>7e78480c-480d-3e9e-0000-000000000000</id>
                <type>PROCESSOR</type>
            </destination>
            <flowFileExpiration>0 sec</flowFileExpiration>
            <labelIndex>1</labelIndex>
            <loadBalanceCompression>DO_NOT_COMPRESS</loadBalanceCompression>
            <loadBalancePartitionAttribute></loadBalancePartitionAttribute>
            <loadBalanceStatus>LOAD_BALANCE_NOT_CONFIGURED</loadBalanceStatus>
            <loadBalanceStrategy>DO_NOT_LOAD_BALANCE</loadBalanceStrategy>
            <name></name>
            <prioritizers>org.apache.nifi.prioritizer.OldestFlowFileFirstPrioritizer</prioritizers>
            <selectedRelationships>splits</selectedRelationships>
            <source>
                <groupId>77f51378-1974-3120-0000-000000000000</groupId>
                <id>98c89c1a-fc4e-3d82-0000-000000000000</id>
                <type>PROCESSOR</type>
            </source>
            <zIndex>0</zIndex>
        </connections>
        <connections>
            <id>c05423d8-17a8-3315-0000-000000000000</id>
            <parentGroupId>77f51378-1974-3120-0000-000000000000</parentGroupId>
            <backPressureDataSizeThreshold>1 GB</backPressureDataSizeThreshold>
            <backPressureObjectThreshold>10000</backPressureObjectThreshold>
            <destination>
                <groupId>77f51378-1974-3120-0000-000000000000</groupId>
                <id>08c83c0b-34a9-3d3f-0000-000000000000</id>
                <type>PROCESSOR</type>
            </destination>
            <flowFileExpiration>0 sec</flowFileExpiration>
            <labelIndex>1</labelIndex>
            <loadBalanceCompression>DO_NOT_COMPRESS</loadBalanceCompression>
            <loadBalancePartitionAttribute></loadBalancePartitionAttribute>
            <loadBalanceStatus>LOAD_BALANCE_NOT_CONFIGURED</loadBalanceStatus>
            <loadBalanceStrategy>DO_NOT_LOAD_BALANCE</loadBalanceStrategy>
            <name></name>
            <source>
                <groupId>77f51378-1974-3120-0000-000000000000</groupId>
                <id>a12cc384-6778-3949-0000-000000000000</id>
                <type>INPUT_PORT</type>
            </source>
            <zIndex>0</zIndex>
        </connections>
        <connections>
            <id>c14d6cee-aa89-33c1-0000-000000000000</id>
            <parentGroupId>77f51378-1974-3120-0000-000000000000</parentGroupId>
            <backPressureDataSizeThreshold>1 GB</backPressureDataSizeThreshold>
            <backPressureObjectThreshold>10000</backPressureObjectThreshold>
            <bends>
                <x>2497.47246170005</x>
                <y>40.0</y>
            </bends>
            <bends>
                <x>2497.47246170005</x>
                <y>90.0</y>
            </bends>
            <destination>
                <groupId>77f51378-1974-3120-0000-000000000000</groupId>
                <id>98c89c1a-fc4e-3d82-0000-000000000000</id>
                <type>PROCESSOR</type>
            </destination>
            <flowFileExpiration>0 sec</flowFileExpiration>
            <labelIndex>1</labelIndex>
            <loadBalanceCompression>DO_NOT_COMPRESS</loadBalanceCompression>
            <loadBalancePartitionAttribute></loadBalancePartitionAttribute>
            <loadBalanceStatus>LOAD_BALANCE_NOT_CONFIGURED</loadBalanceStatus>
            <loadBalanceStrategy>DO_NOT_LOAD_BALANCE</loadBalanceStrategy>
            <name></name>
            <selectedRelationships>failure</selectedRelationships>
            <source>
                <groupId>77f51378-1974-3120-0000-000000000000</groupId>
                <id>98c89c1a-fc4e-3d82-0000-000000000000</id>
                <type>PROCESSOR</type>
            </source>
            <zIndex>0</zIndex>
        </connections>
        <connections>
            <id>c3509324-c172-32f9-0000-000000000000</id>
            <parentGroupId>77f51378-1974-3120-0000-000000000000</parentGroupId>
            <backPressureDataSizeThreshold>2 GB</backPressureDataSizeThreshold>
            <backPressureObjectThreshold>100000</backPressureObjectThreshold>
            <destination>
                <groupId>77f51378-1974-3120-0000-000000000000</groupId>
                <id>361892c5-6ed4-3497-0000-000000000000</id>
                <type>PROCESSOR</type>
            </destination>
            <flowFileExpiration>0 sec</flowFileExpiration>
            <labelIndex>1</labelIndex>
            <loadBalanceCompression>DO_NOT_COMPRESS</loadBalanceCompression>
            <loadBalancePartitionAttribute></loadBalancePartitionAttribute>
            <loadBalanceStatus>LOAD_BALANCE_NOT_CONFIGURED</loadBalanceStatus>
            <loadBalanceStrategy>DO_NOT_LOAD_BALANCE</loadBalanceStrategy>
            <name></name>
            <prioritizers>org.apache.nifi.prioritizer.OldestFlowFileFirstPrioritizer</prioritizers>
            <selectedRelationships>matched</selectedRelationships>
            <source>
                <groupId>77f51378-1974-3120-0000-000000000000</groupId>
                <id>7e78480c-480d-3e9e-0000-000000000000</id>
                <type>PROCESSOR</type>
            </source>
            <zIndex>0</zIndex>
        </connections>
        <connections>
            <id>cfa1ad10-2fdf-3840-0000-000000000000</id>
            <parentGroupId>77f51378-1974-3120-0000-000000000000</parentGroupId>
            <backPressureDataSizeThreshold>1 GB</backPressureDataSizeThreshold>
            <backPressureObjectThreshold>10000</backPressureObjectThreshold>
            <destination>
                <groupId>77f51378-1974-3120-0000-000000000000</groupId>
                <id>53f07c05-f3b2-3ea3-0000-000000000000</id>
                <type>PROCESSOR</type>
            </destination>
            <flowFileExpiration>0 sec</flowFileExpiration>
            <labelIndex>1</labelIndex>
            <loadBalanceCompression>DO_NOT_COMPRESS</loadBalanceCompression>
            <loadBalancePartitionAttribute></loadBalancePartitionAttribute>
            <loadBalanceStatus>LOAD_BALANCE_NOT_CONFIGURED</loadBalanceStatus>
            <loadBalanceStrategy>DO_NOT_LOAD_BALANCE</loadBalanceStrategy>
            <name></name>
            <selectedRelationships>success</selectedRelationships>
            <source>
                <groupId>77f51378-1974-3120-0000-000000000000</groupId>
                <id>361892c5-6ed4-3497-0000-000000000000</id>
                <type>PROCESSOR</type>
            </source>
            <zIndex>0</zIndex>
        </connections>
        <controllerServices>
            <id>75370720-1d48-39b1-0000-000000000000</id>
            <parentGroupId>77f51378-1974-3120-0000-000000000000</parentGroupId>
            <bundle>
                <artifact>nifi-record-serialization-services-nar</artifact>
                <group>org.apache.nifi</group>
                <version>1.8.0.3.3.0.0-165</version>
            </bundle>
            <comments></comments>
            <descriptors>
                <entry>
                    <key>Schema Write Strategy</key>
                    <value>
                        <name>Schema Write Strategy</name>
                    </value>
                </entry>
                <entry>
                    <key>schema-access-strategy</key>
                    <value>
                        <name>schema-access-strategy</name>
                    </value>
                </entry>
                <entry>
                    <key>schema-registry</key>
                    <value>
                        <identifiesControllerService>org.apache.nifi.schemaregistry.services.SchemaRegistry</identifiesControllerService>
                        <name>schema-registry</name>
                    </value>
                </entry>
                <entry>
                    <key>schema-name</key>
                    <value>
                        <name>schema-name</name>
                    </value>
                </entry>
                <entry>
                    <key>schema-version</key>
                    <value>
                        <name>schema-version</name>
                    </value>
                </entry>
                <entry>
                    <key>schema-branch</key>
                    <value>
                        <name>schema-branch</name>
                    </value>
                </entry>
                <entry>
                    <key>schema-text</key>
                    <value>
                        <name>schema-text</name>
                    </value>
                </entry>
                <entry>
                    <key>Date Format</key>
                    <value>
                        <name>Date Format</name>
                    </value>
                </entry>
                <entry>
                    <key>Time Format</key>
                    <value>
                        <name>Time Format</name>
                    </value>
                </entry>
                <entry>
                    <key>Timestamp Format</key>
                    <value>
                        <name>Timestamp Format</name>
                    </value>
                </entry>
                <entry>
                    <key>Pretty Print JSON</key>
                    <value>
                        <name>Pretty Print JSON</name>
                    </value>
                </entry>
                <entry>
                    <key>suppress-nulls</key>
                    <value>
                        <name>suppress-nulls</name>
                    </value>
                </entry>
                <entry>
                    <key>output-grouping</key>
                    <value>
                        <name>output-grouping</name>
                    </value>
                </entry>
            </descriptors>
            <name>JsonRecordSetWriter</name>
            <persistsState>false</persistsState>
            <properties>
                <entry>
                    <key>Schema Write Strategy</key>
                    <value>no-schema</value>
                </entry>
                <entry>
                    <key>schema-access-strategy</key>
                    <value>schema-name</value>
                </entry>
                <entry>
                    <key>schema-registry</key>
                    <value>c44f406d-693e-3a71-0000-000000000000</value>
                </entry>
                <entry>
                    <key>schema-name</key>
                    <value>${schema.name}</value>
                </entry>
                <entry>
                    <key>schema-version</key>
                    <value>2</value>
                </entry>
                <entry>
                    <key>schema-branch</key>
                </entry>
                <entry>
                    <key>schema-text</key>
                    <value>${avro.schema}</value>
                </entry>
                <entry>
                    <key>Date Format</key>
                </entry>
                <entry>
                    <key>Time Format</key>
                </entry>
                <entry>
                    <key>Timestamp Format</key>
                </entry>
                <entry>
                    <key>Pretty Print JSON</key>
                    <value>false</value>
                </entry>
                <entry>
                    <key>suppress-nulls</key>
                    <value>never-suppress</value>
                </entry>
                <entry>
                    <key>output-grouping</key>
                    <value>output-oneline</value>
                </entry>
            </properties>
            <state>ENABLED</state>
            <type>org.apache.nifi.json.JsonRecordSetWriter</type>
        </controllerServices>
        <controllerServices>
            <id>c44f406d-693e-3a71-0000-000000000000</id>
            <parentGroupId>77f51378-1974-3120-0000-000000000000</parentGroupId>
            <bundle>
                <artifact>nifi-hwx-schema-registry-nar</artifact>
                <group>org.apache.nifi</group>
                <version>1.8.0.3.3.0.0-165</version>
            </bundle>
            <comments></comments>
            <descriptors>
                <entry>
                    <key>url</key>
                    <value>
                        <name>url</name>
                    </value>
                </entry>
                <entry>
                    <key>cache-size</key>
                    <value>
                        <name>cache-size</name>
                    </value>
                </entry>
                <entry>
                    <key>cache-expiration</key>
                    <value>
                        <name>cache-expiration</name>
                    </value>
                </entry>
            </descriptors>
            <name>HortonworksSchemaRegistry</name>
            <persistsState>false</persistsState>
            <properties>
                <entry>
                    <key>url</key>
                    <value>http://localhost:7788/api/v1</value>
                </entry>
                <entry>
                    <key>cache-size</key>
                    <value>1000</value>
                </entry>
                <entry>
                    <key>cache-expiration</key>
                    <value>1 hour</value>
                </entry>
            </properties>
            <state>ENABLED</state>
            <type>org.apache.nifi.schemaregistry.hortonworks.HortonworksSchemaRegistry</type>
        </controllerServices>
        <controllerServices>
            <id>ffbb5e76-8ed5-3212-0000-000000000000</id>
            <parentGroupId>77f51378-1974-3120-0000-000000000000</parentGroupId>
            <bundle>
                <artifact>nifi-record-serialization-services-nar</artifact>
                <group>org.apache.nifi</group>
                <version>1.8.0.3.3.0.0-165</version>
            </bundle>
            <comments></comments>
            <descriptors>
                <entry>
                    <key>schema-access-strategy</key>
                    <value>
                        <name>schema-access-strategy</name>
                    </value>
                </entry>
                <entry>
                    <key>schema-registry</key>
                    <value>
                        <identifiesControllerService>org.apache.nifi.schemaregistry.services.SchemaRegistry</identifiesControllerService>
                        <name>schema-registry</name>
                    </value>
                </entry>
                <entry>
                    <key>schema-name</key>
                    <value>
                        <name>schema-name</name>
                    </value>
                </entry>
                <entry>
                    <key>schema-version</key>
                    <value>
                        <name>schema-version</name>
                    </value>
                </entry>
                <entry>
                    <key>schema-branch</key>
                    <value>
                        <name>schema-branch</name>
                    </value>
                </entry>
                <entry>
                    <key>schema-text</key>
                    <value>
                        <name>schema-text</name>
                    </value>
                </entry>
                <entry>
                    <key>Date Format</key>
                    <value>
                        <name>Date Format</name>
                    </value>
                </entry>
                <entry>
                    <key>Time Format</key>
                    <value>
                        <name>Time Format</name>
                    </value>
                </entry>
                <entry>
                    <key>Timestamp Format</key>
                    <value>
                        <name>Timestamp Format</name>
                    </value>
                </entry>
            </descriptors>
            <name>JsonTreeReader</name>
            <persistsState>false</persistsState>
            <properties>
                <entry>
                    <key>schema-access-strategy</key>
                    <value>schema-name</value>
                </entry>
                <entry>
                    <key>schema-registry</key>
                    <value>c44f406d-693e-3a71-0000-000000000000</value>
                </entry>
                <entry>
                    <key>schema-name</key>
                    <value>${schema.name}</value>
                </entry>
                <entry>
                    <key>schema-version</key>
                    <value>2</value>
                </entry>
                <entry>
                    <key>schema-branch</key>
                </entry>
                <entry>
                    <key>schema-text</key>
                    <value>${avro.schema}</value>
                </entry>
                <entry>
                    <key>Date Format</key>
                </entry>
                <entry>
                    <key>Time Format</key>
                </entry>
                <entry>
                    <key>Timestamp Format</key>
                </entry>
            </properties>
            <state>ENABLED</state>
            <type>org.apache.nifi.json.JsonTreeReader</type>
        </controllerServices>
        <inputPorts>
            <id>a12cc384-6778-3949-0000-000000000000</id>
            <parentGroupId>77f51378-1974-3120-0000-000000000000</parentGroupId>
            <position>
                <x>780.4336920191374</x>
                <y>41.17760051007053</y>
            </position>
            <comments></comments>
            <concurrentlySchedulableTaskCount>1</concurrentlySchedulableTaskCount>
            <name>From Hydraulic Rig</name>
            <state>RUNNING</state>
            <transmitting>false</transmitting>
            <type>INPUT_PORT</type>
        </inputPorts>
        <processGroups>
            <id>3c652f8d-986a-378e-0000-000000000000</id>
            <parentGroupId>77f51378-1974-3120-0000-000000000000</parentGroupId>
            <position>
                <x>0.0</x>
                <y>410.8463099772864</y>
            </position>
            <comments></comments>
            <contents>
                <connections>
                    <id>17132add-f6e2-38f3-0000-000000000000</id>
                    <parentGroupId>3c652f8d-986a-378e-0000-000000000000</parentGroupId>
                    <backPressureDataSizeThreshold>1 GB</backPressureDataSizeThreshold>
                    <backPressureObjectThreshold>10000</backPressureObjectThreshold>
                    <bends>
                        <x>644.8855525935919</x>
                        <y>776.3594326784955</y>
                    </bends>
                    <bends>
                        <x>610.8855525935919</x>
                        <y>690.3594326784955</y>
                    </bends>
                    <destination>
                        <groupId>3c652f8d-986a-378e-0000-000000000000</groupId>
                        <id>d7f92bb6-7c99-3461-0000-000000000000</id>
                        <type>PROCESSOR</type>
                    </destination>
                    <flowFileExpiration>0 sec</flowFileExpiration>
                    <labelIndex>0</labelIndex>
                    <loadBalanceCompression>DO_NOT_COMPRESS</loadBalanceCompression>
                    <loadBalancePartitionAttribute></loadBalancePartitionAttribute>
                    <loadBalanceStatus>LOAD_BALANCE_NOT_CONFIGURED</loadBalanceStatus>
                    <loadBalanceStrategy>DO_NOT_LOAD_BALANCE</loadBalanceStrategy>
                    <name></name>
                    <selectedRelationships>failure</selectedRelationships>
                    <source>
                        <groupId>3c652f8d-986a-378e-0000-000000000000</groupId>
                        <id>d7f92bb6-7c99-3461-0000-000000000000</id>
                        <type>PROCESSOR</type>
                    </source>
                    <zIndex>0</zIndex>
                </connections>
                <connections>
                    <id>9f1322c4-2fb3-31e2-0000-000000000000</id>
                    <parentGroupId>3c652f8d-986a-378e-0000-000000000000</parentGroupId>
                    <backPressureDataSizeThreshold>1 GB</backPressureDataSizeThreshold>
                    <backPressureObjectThreshold>10000</backPressureObjectThreshold>
                    <destination>