<?xml version="1.0" encoding="UTF-8" standalone="yes"?>
<template encoding-version="1.2">
    <description></description>
    <groupId>efd1b4ca-a08d-1fbe-0000-00004fd2b2af</groupId>
    <name>MiNiFi MQTT Ingestion Flow</name>
    <snippet>
        <connections>
            <id>bd5d5fd4-82ea-3382-0000-000000000000</id>
            <parentGroupId>78a995a2-140e-3dfb-0000-000000000000</parentGroupId>
            <backPressureDataSizeThreshold>1 GB</backPressureDataSizeThreshold>
            <backPressureObjectThreshold>10000</backPressureObjectThreshold>
            <destination>
                <groupId>0ca5e83a-cea9-3fcb-0000-000000000000</groupId>
                <id>c41938ea-a2bc-1d1c-9ea3-a12d8d1da375</id>
                <type>REMOTE_INPUT_PORT</type>
            </destination>
            <flowFileExpiration>0 sec</flowFileExpiration>
            <labelIndex>1</labelIndex>
            <loadBalanceCompression>DO_NOT_COMPRESS</loadBalanceCompression>
            <loadBalancePartitionAttribute></loadBalancePartitionAttribute>
            <loadBalanceStatus>LOAD_BALANCE_NOT_CONFIGURED</loadBalanceStatus>
            <loadBalanceStrategy>DO_NOT_LOAD_BALANCE</loadBalanceStrategy>
            <name></name>
            <selectedRelationships>Message</selectedRelationships>
            <source>
                <groupId>78a995a2-140e-3dfb-0000-000000000000</groupId>
                <id>d59dee18-b80d-36f9-0000-000000000000</id>
                <type>PROCESSOR</type>
            </source>
            <zIndex>0</zIndex>
        </connections>
        <processors>
            <id>d59dee18-b80d-36f9-0000-000000000000</id>
            <parentGroupId>78a995a2-140e-3dfb-0000-000000000000</parentGroupId>
            <position>
                <x>0.0</x>
                <y>14.478091504662189</y>
            </position>
            <bundle>
                <artifact>nifi-mqtt-nar</artifact>
                <group>org.apache.nifi</group>
                <version>1.8.0.3.3.0.0-165</version>
            </bundle>
            <config>
                <bulletinLevel>WARN</bulletinLevel>
                <comments></comments>
                <concurrentlySchedulableTaskCount>1</concurrentlySchedulableTaskCount>
                <descriptors>
                    <entry>
                        <key>Broker URI</key>
                        <value>
                            <name>Broker URI</name>
                        </value>
                    </entry>
                    <entry>
                        <key>Client ID</key>
                        <value>
                            <name>Client ID</name>
                        </value>
                    </entry>
                    <entry>
                        <key>Username</key>
                        <value>
                            <name>Username</name>
                        </value>
                    </entry>
                    <entry>
                        <key>Password</key>
                        <value>
                            <name>Password</name>
                        </value>
                    </entry>
                    <entry>
                        <key>SSL Context Service</key>
                        <value>
                            <identifiesControllerService>org.apache.nifi.ssl.SSLContextService</identifiesControllerService>
                            <name>SSL Context Service</name>
                        </value>
                    </entry>
                    <entry>
                        <key>Last Will Topic</key>
                        <value>
                            <name>Last Will Topic</name>
                        </value>
                    </entry>
                    <entry>
                        <key>Last Will Message</key>
                        <value>
                            <name>Last Will Message</name>
                        </value>
                    </entry>
                    <entry>
                        <key>Last Will Retain</key>
                        <value>
                            <name>Last Will Retain</name>
                        </value>
                    </entry>
                    <entry>
                        <key>Last Will QoS Level</key>
                        <value>
                            <name>Last Will QoS Level</name>
                        </value>
                    </entry>
                    <entry>
                        <key>Session state</key>
                        <value>
                            <name>Session state</name>
                        </value>
                    </entry>
                    <entry>
                        <key>MQTT Specification Version</key>
                        <value>
                            <name>MQTT Specification Version</name>
                        </value>
                    </entry>
                    <entry>
                        <key>Connection Timeout (seconds)</key>
                        <value>
                            <name>Connection Timeout (seconds)</name>
                        </value>
                    </entry>
                    <entry>
                        <key>Keep Alive Interval (seconds)</key>
                        <value>
                            <name>Keep Alive Interval (seconds)</name>
                        </value>
                    </entry>
                    <entry>
                        <key>Topic Filter</key>
                        <value>
                            <name>Topic Filter</name>
                        </value>
                    </entry>
                    <entry>
                        <key>Quality of Service(QoS)</key>
                        <value>
                            <name>Quality of Service(QoS)</name>
                        </value>
                    </entry>
                    <entry>
                        <key>Max Queue Size</key>
                        <value>
                            <name>Max Queue Size</name>
                        </value>
                    </entry>
                </descriptors>
                <executionNode>ALL</executionNode>
                <lossTolerant>false</lossTolerant>
                <penaltyDuration>30 sec</penaltyDuration>
                <properties>
                    <entry>
                        <key>Broker URI</key>
                        <value>tcp://localhost:1883</value>
                    </entry>
                    <entry>
                        <key>Client ID</key>
                        <value>nifid</value>
                    </entry>
                    <entry>
                        <key>Username</key>
                    </entry>
                    <entry>
                        <key>Password</key>
                    </entry>
                    <entry>
                        <key>SSL Context Service</key>
                    </entry>
                    <entry>
                        <key>Last Will Topic</key>
                    </entry>
                    <entry>
                        <key>Last Will Message</key>
                    </entry>
                    <entry>
                        <key>Last Will Retain</key>
                    </entry>
                    <entry>
                        <key>Last Will QoS Level</key>
                    </entry>
                    <entry>
                        <key>Session state</key>
                        <value>true</value>
                    </entry>
                    <entry>
                        <key>MQTT Specification Version</key>
                        <value>0</value>
                    </entry>
                    <entry>
                        <key>Connection Timeout (seconds)</key>
                        <value>30</value>
                    </entry>
                    <entry>
                        <key>Keep Alive Interval (seconds)</key>
                        <value>60</value>
                    </entry>
                    <entry>
                        <key>Topic Filter</key>
                        <value>sensors</value>
                    </entry>
                    <entry>
                        <key>Quality of Service(QoS)</key>
                        <value>2</value>
                    </entry>
                    <entry>
                        <key>Max Queue Size</key>
                        <value>10000</value>
                    </entry>
                </properties>
                <runDurationMillis>0</runDurationMillis>
                <schedulingPeriod>0 sec</schedulingPeriod>
                <schedulingStrategy>TIMER_DRIVEN</schedulingStrategy>
                <yieldDuration>1 sec</yieldDuration>
            </config>
            <executionNodeRestricted>false</executionNodeRestricted>
            <name>ConsumeMQTT</name>
            <relationships>
                <autoTerminate>false</autoTerminate>
                <name>Message</name>
            </relationships>
            <state>DISABLED</state>
            <style/>
            <type>org.apache.nifi.processors.mqtt.ConsumeMQTT</type>
        </processors>
        <remoteProcessGroups>
            <id>0ca5e83a-cea9-3fcb-0000-000000000000</id>
            <parentGroupId>78a995a2-140e-3dfb-0000-000000000000</parentGroupId>
            <position>
                <x>908.3547246655005</x>
                <y>0.0</y>
            </position>
            <comments></comments>
            <communicationsTimeout>30 sec</communicationsTimeout>
            <contents>
                <inputPorts>
                    <batchSettings/>
                    <comments></comments>
                    <concurrentlySchedulableTaskCount>1</concurrentlySchedulableTaskCount>
                    <connected>true</connected>
                    <exists>true</exists>
                    <groupId>a62b39e8-c46f-1862-b181-56168b129d97</groupId>
                    <id>c41938ea-a2bc-1d1c-9ea3-a12d8d1da375</id>
                    <name>From Hydraulic Rig</name>
                    <targetId>3c51e689-0167-1000-ffff-ffff95cad775</targetId>
                    <targetRunning>true</targetRunning>
                    <transmitting>false</transmitting>
                    <useCompression>false</useCompression>
                </inputPorts>
            </contents>
            <proxyHost></proxyHost>
            <proxyUser></proxyUser>
            <targetUri>http://ip-172-31-24-159.us-west-1.compute.internal:9090/nifi/</targetUri>
            <targetUris>http://ip-172-31-24-159.us-west-1.compute.internal:9090/nifi/</targetUris>
            <transportProtocol>RAW</transportProtocol>
            <yieldDuration>10 sec</yieldDuration>
        </remoteProcessGroups>
    </snippet>
    <timestamp>12/21/2018 23:38:05 UTC</timestamp>
</template>
